-------------------------------------------------------
          Amber 16 SANDER                              2016
          -------------------------------------------------------

File Assignments:

 Here is the input file:

test
 &cntrl
   imin = 0, nstlim = 10000, irest = 0, ntx = 1, dt = 0.002,
   ntt = 3, temp0 = 298.0, gamma_ln = 2.0, ig = -1,
   ntb = 0, cut = 9999.0,
   ioutfm = 1, iwrap = 0,
   ntwe = 10000, ntwx = 10000, ntpr = 1000, ntwr = 500000, ntave = 500000,

   ntc = 2, ntf = 1,
   noshakemask = ':1@1',
 /

--------------------------------------------------------------------------------
   1.  RESOURCE   USE:
--------------------------------------------------------------------------------

 NATOM  =       5 NTYPES =       2 NBONH =       4 MBONA  =       0
 NTHETH =       6 MTHETA =       0 NPHIH =       0 MPHIA  =       0
 NHPARM =       0 NPARM  =       0 NNB   =      11 NRES   =       1
 NBONA  =       0 NTHETA =       0 NPHIA =       0 NUMBND =       1
 NUMANG =       1 NPTRA  =       0 NATYP =       2 NPHB   =       0
 IFBOX  =       0 NMXRS  =       5 IFCAP =       0 NEXTRA =       0
 NCOPY  =       0

Note: ig = -1. Setting random seed to   486106 based on wallclock time in microseconds.

--------------------------------------------------------------------------------
   2.  CONTROL  DATA  FOR  THE  RUN
--------------------------------------------------------------------------------

LIG

General flags:
     imin    =       0, nmropt  =       0

Nature and format of input:
     ntx     =       1, irest   =       0, ntrx    =       1

Nature and format of output:
     ntxo    =       2, ntpr    =    1000, ntrx    =       1, ntwr    =  500000
     iwrap   =       0, ntwx    =   10000, ntwv    =       0, ntwe    =   10000
     ioutfm  =       1, ntwprt  =       0, idecomp =       0, rbornstat=      0

Potential function:
     ntf     =       1, ntb     =       0, igb     =       0, nsnb    =      25
     ipol    =       0, gbsa    =       0, iesp    =       0
     dielc   =   1.00000, cut     =9999.00000, intdiel =   1.00000

Frozen or restrained atoms:
     ibelly  =       0, ntr     =       0

Molecular dynamics:
     nstlim  =     10000, nscm    =      1000, nrespa  =         1
     t       =   0.00000, dt      =   0.00200, vlimit  =  20.00000

Langevin dynamics temperature regulation:
     ig      =  486106
     temp0   = 298.00000, tempi   =   0.00000, gamma_ln=   2.00000

SHAKE:
     ntc     =       2, jfastw  =       0
     tol     =   0.00001

Noshake mask :1@1; matches     1 atoms
   Removing shake constraints from C1   LIG    1 -- H2   LIG    1
   Removing shake constraints from C1   LIG    1 -- H3   LIG    1
   Removing shake constraints from C1   LIG    1 -- H4   LIG    1
   Removing shake constraints from C1   LIG    1 -- H5   LIG    1

--------------------------------------------------------------------------------
   3.  ATOMIC COORDINATES AND VELOCITIES
--------------------------------------------------------------------------------

LIG
 begin time read from input coords =     0.000 ps

 Number of triangulated 3-point waters found:        0

     Sum of charges from parm topology file =   0.00000000
     Forcing neutrality...

--------------------------------------------------------------------------------
   4.  RESULTS
 NSTEP =        0   TIME(PS) =       0.000  TEMP(K) =     0.00  PRESS =     0.0
 Etot   =         0.0913  EKtot   =         0.0000  EPtot      =         0.0913
 BOND   =         0.0006  ANGLE   =         0.0907  DIHED      =         0.0000
 1-4 NB =         0.0000  1-4 EEL =         0.0000  VDWAALS    =         0.0000
 EELEC  =         0.0000  EHBOND  =         0.0000  RESTRAINT  =         0.0000
 ------------------------------------------------------------------------------

      A V E R A G E S   O V E R   10000 S T E P S

 NSTEP =    10000   TIME(PS) =      20.000  TEMP(K) =   317.69  PRESS =     0.0
 Etot   =         8.1652  EKtot   =         4.7349  EPtot      =         3.4302
 BOND   =         1.8246  ANGLE   =         1.6057  DIHED      =         0.0000
 1-4 NB =         0.0000  1-4 EEL =         0.0000  VDWAALS    =         0.0000
 EELEC  =         0.0000  EHBOND  =         0.0000  RESTRAINT  =         0.0000
 ------------------------------------------------------------------------------

      R M S  F L U C T U A T I O N S

 NSTEP =    10000   TIME(PS) =      20.000  TEMP(K) =   111.96  PRESS =     0.0
 Etot   =         2.1729  EKtot   =         1.6687  EPtot      =         1.5047
 BOND   =         1.1818  ANGLE   =         0.9488  DIHED      =         0.0000
 1-4 NB =         0.0000  1-4 EEL =         0.0000  VDWAALS    =         0.0000
 EELEC  =         0.0000  EHBOND  =         0.0000  RESTRAINT  =         0.0000
 ------------------------------------------------------------------------------
